# File generated by Flopy version 3.10.0.dev5 on 05/12/2026 at 16:26:37.
BEGIN options
END options

BEGIN timing
  TDIS6  minet01.tdis
END timing

BEGIN models
  gwf6  minet01.nam  minet01
END models

BEGIN exchanges
END exchanges

BEGIN solutiongroup  1
  ims6  minet01.ims  minet01
END solutiongroup  1

