# File generated by Flopy version 3.10.0.dev5 on 05/12/2026 at 16:26:38.
BEGIN options
  READASARRAYS
END options

BEGIN period  1
  recharge
    CONSTANT       0.00100000
END period  1

