# File generated by Flopy version 3.10.0.dev5 on 05/12/2026 at 16:26:37.
BEGIN options
  TIME_UNITS  days
END options

BEGIN dimensions
  NPER  1
END dimensions

BEGIN perioddata
       1.00000000  1       1.00000000
END perioddata

