# File generated by Flopy version 3.10.0.dev5 on 05/12/2026 at 16:26:37.
BEGIN options
  COMPLEXITY  simple
END options

