# File generated by Flopy version 3.10.0.dev5 on 05/12/2026 at 16:26:38.
BEGIN options
END options

BEGIN dimensions
  MAXBOUND  1166
END dimensions

BEGIN period  1
  1 7 91 3.17000000E+02 1.00000000E+01 3.17000000E+02
  1 8 91 3.18000000E+02 1.00000000E+01 3.18000000E+02
  1 8 92 3.17000000E+02 1.00000000E+01 3.17000000E+02
  1 9 90 3.21000000E+02 1.00000000E+01 3.21000000E+02
  1 9 91 3.18000000E+02 1.00000000E+01 3.18000000E+02
  1 9 92 3.18000000E+02 1.00000000E+01 3.18000000E+02
  1 10 56 3.11000000E+02 1.00000000E+01 3.11000000E+02
  1 10 64 3.15000000E+02 1.00000000E+01 3.15000000E+02
  1 10 65 3.17000000E+02 1.00000000E+01 3.17000000E+02
  1 10 66 3.20000000E+02 1.00000000E+01 3.20000000E+02
  1 10 67 3.21000000E+02 1.00000000E+01 3.21000000E+02
  1 10 87 3.20000000E+02 1.00000000E+01 3.20000000E+02
  1 10 88 3.22000000E+02 1.00000000E+01 3.22000000E+02
  1 10 89 3.22000000E+02 1.00000000E+01 3.22000000E+02
  1 10 90 3.20000000E+02 1.00000000E+01 3.20000000E+02
  1 10 91 3.20000000E+02 1.00000000E+01 3.20000000E+02
  1 10 92 3.19000000E+02 1.00000000E+01 3.19000000E+02
  1 10 93 3.15000000E+02 1.00000000E+01 3.15000000E+02
  1 10 94 3.19000000E+02 1.00000000E+01 3.19000000E+02
  1 10 107 3.28000000E+02 1.00000000E+01 3.28000000E+02
  1 10 108 3.26000000E+02 1.00000000E+01 3.26000000E+02
  1 11 56 3.11000000E+02 1.00000000E+01 3.11000000E+02
  1 11 57 3.12000000E+02 1.00000000E+01 3.12000000E+02
  1 11 58 3.13000000E+02 1.00000000E+01 3.13000000E+02
  1 11 59 3.10000000E+02 1.00000000E+01 3.10000000E+02
  1 11 60 3.12000000E+02 1.00000000E+01 3.12000000E+02
  1 11 61 3.12000000E+02 1.00000000E+01 3.12000000E+02
  1 11 62 3.11000000E+02 1.00000000E+01 3.11000000E+02
  1 11 63 3.13000000E+02 1.00000000E+01 3.13000000E+02
  1 11 64 3.12000000E+02 1.00000000E+01 3.12000000E+02
  1 11 86 3.22000000E+02 1.00000000E+01 3.22000000E+02
  1 11 87 3.21000000E+02 1.00000000E+01 3.21000000E+02
  1 11 88 3.22000000E+02 1.00000000E+01 3.22000000E+02
  1 11 92 3.23000000E+02 1.00000000E+01 3.23000000E+02
  1 11 93 3.17000000E+02 1.00000000E+01 3.17000000E+02
  1 11 94 3.15000000E+02 1.00000000E+01 3.15000000E+02
  1 11 95 3.18000000E+02 1.00000000E+01 3.18000000E+02
  1 11 107 3.28000000E+02 1.00000000E+01 3.28000000E+02
  1 12 84 3.28000000E+02 1.00000000E+01 3.28000000E+02
  1 12 85 3.26000000E+02 1.00000000E+01 3.26000000E+02
  1 12 86 3.22000000E+02 1.00000000E+01 3.22000000E+02
  1 12 88 3.23000000E+02 1.00000000E+01 3.23000000E+02
  1 12 89 3.27000000E+02 1.00000000E+01 3.27000000E+02
  1 12 92 3.22000000E+02 1.00000000E+01 3.22000000E+02
  1 12 95 3.21000000E+02 1.00000000E+01 3.21000000E+02
  1 12 96 3.21000000E+02 1.00000000E+01 3.21000000E+02
  1 12 97 3.24000000E+02 1.00000000E+01 3.24000000E+02
  1 12 107 3.24000000E+02 1.00000000E+01 3.24000000E+02
  1 13 82 3.34000000E+02 1.00000000E+01 3.34000000E+02
  1 13 83 3.29000000E+02 1.00000000E+01 3.29000000E+02
  1 13 84 3.29000000E+02 1.00000000E+01 3.29000000E+02
  1 13 85 3.25000000E+02 1.00000000E+01 3.25000000E+02
  1 13 86 3.26000000E+02 1.00000000E+01 3.26000000E+02
  1 13 89 3.29000000E+02 1.00000000E+01 3.29000000E+02
  1 13 92 3.27000000E+02 1.00000000E+01 3.27000000E+02
  1 13 97 3.22000000E+02 1.00000000E+01 3.22000000E+02
  1 13 98 3.16000000E+02 1.00000000E+01 3.16000000E+02
  1 13 99 3.17000000E+02 1.00000000E+01 3.17000000E+02
  1 13 107 3.23000000E+02 1.00000000E+01 3.23000000E+02
  1 14 84 3.33000000E+02 1.00000000E+01 3.33000000E+02
  1 14 85 3.30000000E+02 1.00000000E+01 3.30000000E+02
  1 14 86 3.28000000E+02 1.00000000E+01 3.28000000E+02
  1 14 89 3.33000000E+02 1.00000000E+01 3.33000000E+02
  1 14 90 3.32000000E+02 1.00000000E+01 3.32000000E+02
  1 14 92 3.32000000E+02 1.00000000E+01 3.32000000E+02
  1 14 93 3.32000000E+02 1.00000000E+01 3.32000000E+02
  1 14 94 3.27000000E+02 1.00000000E+01 3.27000000E+02
  1 14 99 3.21000000E+02 1.00000000E+01 3.21000000E+02
  1 14 100 3.21000000E+02 1.00000000E+01 3.21000000E+02
  1 14 107 3.27000000E+02 1.00000000E+01 3.27000000E+02
  1 15 83 3.37000000E+02 1.00000000E+01 3.37000000E+02
  1 15 84 3.37000000E+02 1.00000000E+01 3.37000000E+02
  1 15 85 3.32000000E+02 1.00000000E+01 3.32000000E+02
  1 15 89 3.36000000E+02 1.00000000E+01 3.36000000E+02
  1 15 94 3.32000000E+02 1.00000000E+01 3.32000000E+02
  1 15 100 3.21000000E+02 1.00000000E+01 3.21000000E+02
  1 15 101 3.21000000E+02 1.00000000E+01 3.21000000E+02
  1 15 102 3.17000000E+02 1.00000000E+01 3.17000000E+02
  1 15 107 3.27000000E+02 1.00000000E+01 3.27000000E+02
  1 16 73 3.27000000E+02 1.00000000E+01 3.27000000E+02
  1 16 83 3.40000000E+02 1.00000000E+01 3.40000000E+02
  1 16 84 3.40000000E+02 1.00000000E+01 3.40000000E+02
  1 16 85 3.43000000E+02 1.00000000E+01 3.43000000E+02
  1 16 88 3.39000000E+02 1.00000000E+01 3.39000000E+02
  1 16 89 3.42000000E+02 1.00000000E+01 3.42000000E+02
  1 16 94 3.30000000E+02 1.00000000E+01 3.30000000E+02
  1 16 102 3.26000000E+02 1.00000000E+01 3.26000000E+02
  1 16 103 3.22000000E+02 1.00000000E+01 3.22000000E+02
  1 16 104 3.21000000E+02 1.00000000E+01 3.21000000E+02
  1 16 107 3.26000000E+02 1.00000000E+01 3.26000000E+02
  1 17 73 3.29000000E+02 1.00000000E+01 3.29000000E+02
  1 17 104 3.22000000E+02 1.00000000E+01 3.22000000E+02
  1 17 105 3.25000000E+02 1.00000000E+01 3.25000000E+02
  1 17 106 3.22000000E+02 1.00000000E+01 3.22000000E+02
  1 17 107 3.25000000E+02 1.00000000E+01 3.25000000E+02
  1 17 117 3.26000000E+02 1.00000000E+01 3.26000000E+02
  1 18 73 3.25000000E+02 1.00000000E+01 3.25000000E+02
  1 18 81 3.31000000E+02 1.00000000E+01 3.31000000E+02
  1 18 82 3.33000000E+02 1.00000000E+01 3.33000000E+02
  1 18 104 3.24000000E+02 1.00000000E+01 3.24000000E+02
  1 18 105 3.22000000E+02 1.00000000E+01 3.22000000E+02
  1 18 106 3.23000000E+02 1.00000000E+01 3.23000000E+02
  1 18 107 3.25000000E+02 1.00000000E+01 3.25000000E+02
  1 18 108 3.24000000E+02 1.00000000E+01 3.24000000E+02
  1 18 109 3.25000000E+02 1.00000000E+01 3.25000000E+02
  1 18 110 3.26000000E+02 1.00000000E+01 3.26000000E+02
  1 18 111 3.26000000E+02 1.00000000E+01 3.26000000E+02
  1 18 112 3.27000000E+02 1.00000000E+01 3.27000000E+02
  1 18 113 3.27000000E+02 1.00000000E+01 3.27000000E+02
  1 18 114 3.27000000E+02 1.00000000E+01 3.27000000E+02
  1 18 115 3.28000000E+02 1.00000000E+01 3.28000000E+02
  1 18 116 3.27000000E+02 1.00000000E+01 3.27000000E+02
  1 18 117 3.28000000E+02 1.00000000E+01 3.28000000E+02
  1 19 73 3.26000000E+02 1.00000000E+01 3.26000000E+02
  1 19 74 3.23000000E+02 1.00000000E+01 3.23000000E+02
  1 19 79 3.27000000E+02 1.00000000E+01 3.27000000E+02
  1 19 80 3.26000000E+02 1.00000000E+01 3.26000000E+02
  1 19 81 3.33000000E+02 1.00000000E+01 3.33000000E+02
  1 19 104 3.27000000E+02 1.00000000E+01 3.27000000E+02
  1 19 117 3.28000000E+02 1.00000000E+01 3.28000000E+02
  1 19 118 3.26000000E+02 1.00000000E+01 3.26000000E+02
  1 20 69 3.23000000E+02 1.00000000E+01 3.23000000E+02
  1 20 74 3.23000000E+02 1.00000000E+01 3.23000000E+02
  1 20 77 3.21000000E+02 1.00000000E+01 3.21000000E+02
  1 20 78 3.27000000E+02 1.00000000E+01 3.27000000E+02
  1 20 79 3.32000000E+02 1.00000000E+01 3.32000000E+02
  1 20 81 3.31000000E+02 1.00000000E+01 3.31000000E+02
  1 20 82 3.33000000E+02 1.00000000E+01 3.33000000E+02
  1 20 104 3.23000000E+02 1.00000000E+01 3.23000000E+02
  1 21 69 3.28000000E+02 1.00000000E+01 3.28000000E+02
  1 21 74 3.23000000E+02 1.00000000E+01 3.23000000E+02
  1 21 75 3.24000000E+02 1.00000000E+01 3.24000000E+02
  1 21 76 3.27000000E+02 1.00000000E+01 3.27000000E+02
  1 21 77 3.25000000E+02 1.00000000E+01 3.25000000E+02
  1 21 82 3.33000000E+02 1.00000000E+01 3.33000000E+02
  1 21 83 3.34000000E+02 1.00000000E+01 3.34000000E+02
  1 21 104 3.24000000E+02 1.00000000E+01 3.24000000E+02
  1 22 69 3.28000000E+02 1.00000000E+01 3.28000000E+02
  1 22 74 3.22000000E+02 1.00000000E+01 3.22000000E+02
  1 22 75 3.23000000E+02 1.00000000E+01 3.23000000E+02
  1 22 83 3.36000000E+02 1.00000000E+01 3.36000000E+02
  1 22 104 3.27000000E+02 1.00000000E+01 3.27000000E+02
  1 22 120 3.33000000E+02 1.00000000E+01 3.33000000E+02
  1 23 69 3.20000000E+02 1.00000000E+01 3.20000000E+02
  1 23 72 3.24000000E+02 1.00000000E+01 3.24000000E+02
  1 23 73 3.24000000E+02 1.00000000E+01 3.24000000E+02
  1 23 74 3.21000000E+02 1.00000000E+01 3.21000000E+02
  1 23 103 3.24000000E+02 1.00000000E+01 3.24000000E+02
  1 23 104 3.28000000E+02 1.00000000E+01 3.28000000E+02
  1 23 120 3.37000000E+02 1.00000000E+01 3.37000000E+02
  1 24 37 3.24000000E+02 1.00000000E+01 3.24000000E+02
  1 24 38 3.24000000E+02 1.00000000E+01 3.24000000E+02
  1 24 39 3.20000000E+02 1.00000000E+01 3.20000000E+02
  1 24 69 3.18000000E+02 1.00000000E+01 3.18000000E+02
  1 24 70 3.19000000E+02 1.00000000E+01 3.19000000E+02
  1 24 71 3.23000000E+02 1.00000000E+01 3.23000000E+02
  1 24 72 3.24000000E+02 1.00000000E+01 3.24000000E+02
  1 24 103 3.27000000E+02 1.00000000E+01 3.27000000E+02
  1 24 119 3.38000000E+02 1.00000000E+01 3.38000000E+02
  1 24 120 3.36000000E+02 1.00000000E+01 3.36000000E+02
  1 25 39 3.24000000E+02 1.00000000E+01 3.24000000E+02
  1 25 40 3.23000000E+02 1.00000000E+01 3.23000000E+02
  1 25 67 3.19000000E+02 1.00000000E+01 3.19000000E+02
  1 25 68 3.19000000E+02 1.00000000E+01 3.19000000E+02
  1 25 69 3.20000000E+02 1.00000000E+01 3.20000000E+02
  1 25 72 3.22000000E+02 1.00000000E+01 3.22000000E+02
  1 25 73 3.25000000E+02 1.00000000E+01 3.25000000E+02
  1 25 102 3.29000000E+02 1.00000000E+01 3.29000000E+02
  1 25 103 3.29000000E+02 1.00000000E+01 3.29000000E+02
  1 25 119 3.39000000E+02 1.00000000E+01 3.39000000E+02
  1 26 65 3.21000000E+02 1.00000000E+01 3.21000000E+02
  1 26 66 3.19000000E+02 1.00000000E+01 3.19000000E+02
  1 26 67 3.19000000E+02 1.00000000E+01 3.19000000E+02
  1 26 73 3.24000000E+02 1.00000000E+01 3.24000000E+02
  1 26 93 3.36000000E+02 1.00000000E+01 3.36000000E+02
  1 26 102 3.30000000E+02 1.00000000E+01 3.30000000E+02
  1 26 119 3.33000000E+02 1.00000000E+01 3.33000000E+02
  1 27 63 3.17000000E+02 1.00000000E+01 3.17000000E+02
  1 27 64 3.18000000E+02 1.00000000E+01 3.18000000E+02
  1 27 65 3.17000000E+02 1.00000000E+01 3.17000000E+02
  1 27 73 3.25000000E+02 1.00000000E+01 3.25000000E+02
  1 27 74 3.25000000E+02 1.00000000E+01 3.25000000E+02
  1 27 93 3.38000000E+02 1.00000000E+01 3.38000000E+02
  1 27 102 3.33000000E+02 1.00000000E+01 3.33000000E+02
  1 27 119 3.38000000E+02 1.00000000E+01 3.38000000E+02
  1 27 120 3.40000000E+02 1.00000000E+01 3.40000000E+02
  1 28 62 3.12000000E+02 1.00000000E+01 3.12000000E+02
  1 28 63 3.14000000E+02 1.00000000E+01 3.14000000E+02
  1 28 74 3.31000000E+02 1.00000000E+01 3.31000000E+02
  1 28 86 3.29000000E+02 1.00000000E+01 3.29000000E+02
  1 28 92 3.34000000E+02 1.00000000E+01 3.34000000E+02
  1 28 93 3.35000000E+02 1.00000000E+01 3.35000000E+02
  1 28 102 3.34000000E+02 1.00000000E+01 3.34000000E+02
  1 28 120 3.40000000E+02 1.00000000E+01 3.40000000E+02
  1 29 60 3.17000000E+02 1.00000000E+01 3.17000000E+02
  1 29 61 3.12000000E+02 1.00000000E+01 3.12000000E+02
  1 29 62 3.13000000E+02 1.00000000E+01 3.13000000E+02
  1 29 63 3.18000000E+02 1.00000000E+01 3.18000000E+02
  1 29 64 3.16000000E+02 1.00000000E+01 3.16000000E+02
  1 29 86 3.27000000E+02 1.00000000E+01 3.27000000E+02
  1 29 91 3.30000000E+02 1.00000000E+01 3.30000000E+02
  1 29 92 3.28000000E+02 1.00000000E+01 3.28000000E+02
  1 29 97 3.38000000E+02 1.00000000E+01 3.38000000E+02
  1 29 98 3.34000000E+02 1.00000000E+01 3.34000000E+02
  1 29 102 3.33000000E+02 1.00000000E+01 3.33000000E+02
  1 30 46 3.22000000E+02 1.00000000E+01 3.22000000E+02
  1 30 47 3.20000000E+02 1.00000000E+01 3.20000000E+02
  1 30 56 3.10000000E+02 1.00000000E+01 3.10000000E+02
  1 30 57 3.14000000E+02 1.00000000E+01 3.14000000E+02
  1 30 58 3.14000000E+02 1.00000000E+01 3.14000000E+02
  1 30 59 3.13000000E+02 1.00000000E+01 3.13000000E+02
  1 30 60 3.18000000E+02 1.00000000E+01 3.18000000E+02
  1 30 64 3.17000000E+02 1.00000000E+01 3.17000000E+02
  1 30 79 3.24000000E+02 1.00000000E+01 3.24000000E+02
  1 30 86 3.26000000E+02 1.00000000E+01 3.26000000E+02
  1 30 91 3.29000000E+02 1.00000000E+01 3.29000000E+02
  1 30 95 3.39000000E+02 1.00000000E+01 3.39000000E+02
  1 30 96 3.34000000E+02 1.00000000E+01 3.34000000E+02
  1 30 97 3.35000000E+02 1.00000000E+01 3.35000000E+02
  1 30 102 3.33000000E+02 1.00000000E+01 3.33000000E+02
  1 31 47 3.20000000E+02 1.00000000E+01 3.20000000E+02
  1 31 48 3.17000000E+02 1.00000000E+01 3.17000000E+02
  1 31 54 3.11000000E+02 1.00000000E+01 3.11000000E+02
  1 31 55 3.10000000E+02 1.00000000E+01 3.10000000E+02
  1 31 56 3.13000000E+02 1.00000000E+01 3.13000000E+02
  1 31 64 3.21000000E+02 1.00000000E+01 3.21000000E+02
  1 31 73 3.29000000E+02 1.00000000E+01 3.29000000E+02
  1 31 74 3.31000000E+02 1.00000000E+01 3.31000000E+02
  1 31 79 3.23000000E+02 1.00000000E+01 3.23000000E+02
  1 31 85 3.24000000E+02 1.00000000E+01 3.24000000E+02
  1 31 86 3.23000000E+02 1.00000000E+01 3.23000000E+02
  1 31 90 3.26000000E+02 1.00000000E+01 3.26000000E+02
  1 31 91 3.28000000E+02 1.00000000E+01 3.28000000E+02
  1 31 94 3.33000000E+02 1.00000000E+01 3.33000000E+02
  1 31 95 3.34000000E+02 1.00000000E+01 3.34000000E+02
  1 31 105 3.37000000E+02 1.00000000E+01 3.37000000E+02
  1 31 116 3.46000000E+02 1.00000000E+01 3.46000000E+02
  1 32 48 3.13000000E+02 1.00000000E+01 3.13000000E+02
  1 32 52 3.10000000E+02 1.00000000E+01 3.10000000E+02
  1 32 53 3.07000000E+02 1.00000000E+01 3.07000000E+02
  1 32 54 3.12000000E+02 1.00000000E+01 3.12000000E+02
  1 32 55 3.12000000E+02 1.00000000E+01 3.12000000E+02
  1 32 56 3.12000000E+02 1.00000000E+01 3.12000000E+02
  1 32 64 3.23000000E+02 1.00000000E+01 3.23000000E+02
  1 32 65 3.24000000E+02 1.00000000E+01 3.24000000E+02
  1 32 74 3.30000000E+02 1.00000000E+01 3.30000000E+02
  1 32 75 3.23000000E+02 1.00000000E+01 3.23000000E+02
  1 32 76 3.23000000E+02 1.00000000E+01 3.23000000E+02
  1 32 79 3.23000000E+02 1.00000000E+01 3.23000000E+02
  1 32 80 3.23000000E+02 1.00000000E+01 3.23000000E+02
  1 32 85 3.25000000E+02 1.00000000E+01 3.25000000E+02
  1 32 89 3.23000000E+02 1.00000000E+01 3.23000000E+02
  1 32 90 3.25000000E+02 1.00000000E+01 3.25000000E+02
  1 32 93 3.32000000E+02 1.00000000E+01 3.32000000E+02
  1 32 94 3.31000000E+02 1.00000000E+01 3.31000000E+02
  1 32 104 3.33000000E+02 1.00000000E+01 3.33000000E+02
  1 32 105 3.33000000E+02 1.00000000E+01 3.33000000E+02
  1 32 115 3.40000000E+02 1.00000000E+01 3.40000000E+02
  1 32 116 3.41000000E+02 1.00000000E+01 3.41000000E+02
  1 32 122 3.51000000E+02 1.00000000E+01 3.51000000E+02
  1 32 123 3.52000000E+02 1.00000000E+01 3.52000000E+02
  1 33 48 3.13000000E+02 1.00000000E+01 3.13000000E+02
  1 33 49 3.13000000E+02 1.00000000E+01 3.13000000E+02
  1 33 51 3.10000000E+02 1.00000000E+01 3.10000000E+02
  1 33 52 3.07000000E+02 1.00000000E+01 3.07000000E+02
  1 33 56 3.17000000E+02 1.00000000E+01 3.17000000E+02
  1 33 57 3.16000000E+02 1.00000000E+01 3.16000000E+02
  1 33 76 3.23000000E+02 1.00000000E+01 3.23000000E+02
  1 33 77 3.22000000E+02 1.00000000E+01 3.22000000E+02
  1 33 80 3.22000000E+02 1.00000000E+01 3.22000000E+02
  1 33 85 3.20000000E+02 1.00000000E+01 3.20000000E+02
  1 33 88 3.24000000E+02 1.00000000E+01 3.24000000E+02
  1 33 89 3.22000000E+02 1.00000000E+01 3.22000000E+02
  1 33 92 3.29000000E+02 1.00000000E+01 3.29000000E+02
  1 33 93 3.32000000E+02 1.00000000E+01 3.32000000E+02
  1 33 104 3.34000000E+02 1.00000000E+01 3.34000000E+02
  1 33 108 3.35000000E+02 1.00000000E+01 3.35000000E+02
  1 33 109 3.38000000E+02 1.00000000E+01 3.38000000E+02
  1 33 114 3.40000000E+02 1.00000000E+01 3.40000000E+02
  1 33 115 3.43000000E+02 1.00000000E+01 3.43000000E+02
  1 33 123 3.48000000E+02 1.00000000E+01 3.48000000E+02
  1 34 49 3.07000000E+02 1.00000000E+01 3.07000000E+02
  1 34 50 3.08000000E+02 1.00000000E+01 3.08000000E+02
  1 34 51 3.07000000E+02 1.00000000E+01 3.07000000E+02
  1 34 57 3.16000000E+02 1.00000000E+01 3.16000000E+02
  1 34 58 3.22000000E+02 1.00000000E+01 3.22000000E+02
  1 34 77 3.18000000E+02 1.00000000E+01 3.18000000E+02
  1 34 80 3.17000000E+02 1.00000000E+01 3.17000000E+02
  1 34 84 3.21000000E+02 1.00000000E+01 3.21000000E+02
  1 34 85 3.20000000E+02 1.00000000E+01 3.20000000E+02
  1 34 87 3.20000000E+02 1.00000000E+01 3.20000000E+02
  1 34 88 3.23000000E+02 1.00000000E+01 3.23000000E+02
  1 34 91 3.26000000E+02 1.00000000E+01 3.26000000E+02
  1 34 92 3.28000000E+02 1.00000000E+01 3.28000000E+02
  1 34 104 3.31000000E+02 1.00000000E+01 3.31000000E+02
  1 34 108 3.28000000E+02 1.00000000E+01 3.28000000E+02
  1 34 114 3.36000000E+02 1.00000000E+01 3.36000000E+02
  1 34 123 3.49000000E+02 1.00000000E+01 3.49000000E+02
  1 34 124 3.44000000E+02 1.00000000E+01 3.44000000E+02
  1 35 37 3.17000000E+02 1.00000000E+01 3.17000000E+02
  1 35 38 3.19000000E+02 1.00000000E+01 3.19000000E+02
  1 35 47 3.10000000E+02 1.00000000E+01 3.10000000E+02
  1 35 48 3.07000000E+02 1.00000000E+01 3.07000000E+02
  1 35 49 3.11000000E+02 1.00000000E+01 3.11000000E+02
  1 35 58 3.23000000E+02 1.00000000E+01 3.23000000E+02
  1 35 77 3.17000000E+02 1.00000000E+01 3.17000000E+02
  1 35 78 3.14000000E+02 1.00000000E+01 3.14000000E+02
  1 35 80 3.17000000E+02 1.00000000E+01 3.17000000E+02
  1 35 81 3.17000000E+02 1.00000000E+01 3.17000000E+02
  1 35 84 3.19000000E+02 1.00000000E+01 3.19000000E+02
  1 35 86 3.18000000E+02 1.00000000E+01 3.18000000E+02
  1 35 87 3.19000000E+02 1.00000000E+01 3.19000000E+02
  1 35 89 3.23000000E+02 1.00000000E+01 3.23000000E+02
  1 35 90 3.23000000E+02 1.00000000E+01 3.23000000E+02
  1 35 91 3.24000000E+02 1.00000000E+01 3.24000000E+02
  1 35 104 3.28000000E+02 1.00000000E+01 3.28000000E+02
  1 35 108 3.28000000E+02 1.00000000E+01 3.28000000E+02
  1 35 113 3.36000000E+02 1.00000000E+01 3.36000000E+02
  1 35 114 3.37000000E+02 1.00000000E+01 3.37000000E+02
  1 35 124 3.42000000E+02 1.00000000E+01 3.42000000E+02
  1 35 125 3.40000000E+02 1.00000000E+01 3.40000000E+02
  1 36 38 3.18000000E+02 1.00000000E+01 3.18000000E+02
  1 36 39 3.15000000E+02 1.00000000E+01 3.15000000E+02
  1 36 46 3.02000000E+02 1.00000000E+01 3.02000000E+02
  1 36 47 3.03000000E+02 1.00000000E+01 3.03000000E+02
  1 36 78 3.18000000E+02 1.00000000E+01 3.18000000E+02
  1 36 79 3.13000000E+02 1.00000000E+01 3.13000000E+02
  1 36 81 3.17000000E+02 1.00000000E+01 3.17000000E+02
  1 36 83 3.18000000E+02 1.00000000E+01 3.18000000E+02
  1 36 84 3.21000000E+02 1.00000000E+01 3.21000000E+02
  1 36 85 3.18000000E+02 1.00000000E+01 3.18000000E+02
  1 36 86 3.19000000E+02 1.00000000E+01 3.19000000E+02
  1 36 87 3.19000000E+02 1.00000000E+01 3.19000000E+02
  1 36 88 3.18000000E+02 1.00000000E+01 3.18000000E+02
  1 36 89 3.20000000E+02 1.00000000E+01 3.20000000E+02
  1 36 104 3.25000000E+02 1.00000000E+01 3.25000000E+02
  1 36 107 3.25000000E+02 1.00000000E+01 3.25000000E+02
  1 36 108 3.28000000E+02 1.00000000E+01 3.28000000E+02
  1 36 113 3.35000000E+02 1.00000000E+01 3.35000000E+02
  1 36 125 3.37000000E+02 1.00000000E+01 3.37000000E+02
  1 37 39 3.15000000E+02 1.00000000E+01 3.15000000E+02
  1 37 40 3.11000000E+02 1.00000000E+01 3.11000000E+02
  1 37 45 3.03000000E+02 1.00000000E+01 3.03000000E+02
  1 37 46 3.06000000E+02 1.00000000E+01 3.06000000E+02
  1 37 79 3.13000000E+02 1.00000000E+01 3.13000000E+02
  1 37 80 3.12000000E+02 1.00000000E+01 3.12000000E+02
  1 37 81 3.11000000E+02 1.00000000E+01 3.11000000E+02
  1 37 82 3.14000000E+02 1.00000000E+01 3.14000000E+02
  1 37 83 3.19000000E+02 1.00000000E+01 3.19000000E+02
  1 37 84 3.16000000E+02 1.00000000E+01 3.16000000E+02
  1 37 85 3.16000000E+02 1.00000000E+01 3.16000000E+02
  1 37 104 3.24000000E+02 1.00000000E+01 3.24000000E+02
  1 37 107 3.23000000E+02 1.00000000E+01 3.23000000E+02
  1 37 112 3.31000000E+02 1.00000000E+01 3.31000000E+02
  1 37 113 3.32000000E+02 1.00000000E+01 3.32000000E+02
  1 37 114 3.36000000E+02 1.00000000E+01 3.36000000E+02
  1 37 115 3.40000000E+02 1.00000000E+01 3.40000000E+02
  1 37 116 3.40000000E+02 1.00000000E+01 3.40000000E+02
  1 37 125 3.38000000E+02 1.00000000E+01 3.38000000E+02
  1 37 126 3.35000000E+02 1.00000000E+01 3.35000000E+02
  1 38 40 3.08000000E+02 1.00000000E+01 3.08000000E+02
  1 38 44 3.03000000E+02 1.00000000E+01 3.03000000E+02
  1 38 45 3.06000000E+02 1.00000000E+01 3.06000000E+02
  1 38 80 3.11000000E+02 1.00000000E+01 3.11000000E+02
  1 38 82 3.18000000E+02 1.00000000E+01 3.18000000E+02
  1 38 103 3.22000000E+02 1.00000000E+01 3.22000000E+02
  1 38 104 3.24000000E+02 1.00000000E+01 3.24000000E+02
  1 38 105 3.24000000E+02 1.00000000E+01 3.24000000E+02
  1 38 106 3.30000000E+02 1.00000000E+01 3.30000000E+02
  1 38 107 3.24000000E+02 1.00000000E+01 3.24000000E+02
  1 38 108 3.27000000E+02 1.00000000E+01 3.27000000E+02
  1 38 109 3.29000000E+02 1.00000000E+01 3.29000000E+02
  1 38 110 3.32000000E+02 1.00000000E+01 3.32000000E+02
  1 38 111 3.33000000E+02 1.00000000E+01 3.33000000E+02
  1 38 112 3.34000000E+02 1.00000000E+01 3.34000000E+02
  1 38 126 3.32000000E+02 1.00000000E+01 3.32000000E+02
  1 39 40 3.06000000E+02 1.00000000E+01 3.06000000E+02
  1 39 42 3.02000000E+02 1.00000000E+01 3.02000000E+02
  1 39 43 3.04000000E+02 1.00000000E+01 3.04000000E+02
  1 39 44 3.05000000E+02 1.00000000E+01 3.05000000E+02
  1 39 80 3.14000000E+02 1.00000000E+01 3.14000000E+02
  1 39 81 3.17000000E+02 1.00000000E+01 3.17000000E+02
  1 39 82 3.15000000E+02 1.00000000E+01 3.15000000E+02
  1 39 95 3.23000000E+02 1.00000000E+01 3.23000000E+02
  1 39 102 3.17000000E+02 1.00000000E+01 3.17000000E+02
  1 39 103 3.22000000E+02 1.00000000E+01 3.22000000E+02
  1 39 126 3.34000000E+02 1.00000000E+01 3.34000000E+02
  1 40 40 3.03000000E+02 1.00000000E+01 3.03000000E+02
  1 40 41 3.04000000E+02 1.00000000E+01 3.04000000E+02
  1 40 42 3.06000000E+02 1.00000000E+01 3.06000000E+02
  1 40 67 3.22000000E+02 1.00000000E+01 3.22000000E+02
  1 40 80 3.14000000E+02 1.00000000E+01 3.14000000E+02
  1 40 81 3.16000000E+02 1.00000000E+01 3.16000000E+02
  1 40 95 3.27000000E+02 1.00000000E+01 3.27000000E+02
  1 40 100 3.19000000E+02 1.00000000E+01 3.19000000E+02
  1 40 101 3.19000000E+02 1.00000000E+01 3.19000000E+02
  1 40 102 3.16000000E+02 1.00000000E+01 3.16000000E+02
  1 40 126 3.28000000E+02 1.00000000E+01 3.28000000E+02
  1 41 40 3.02000000E+02 1.00000000E+01 3.02000000E+02
  1 41 41 3.02000000E+02 1.00000000E+01 3.02000000E+02
  1 41 67 3.22000000E+02 1.00000000E+01 3.22000000E+02
  1 41 79 3.10000000E+02 1.00000000E+01 3.10000000E+02
  1 41 80 3.13000000E+02 1.00000000E+01 3.13000000E+02
  1 41 95 3.22000000E+02 1.00000000E+01 3.22000000E+02
  1 41 99 3.20000000E+02 1.00000000E+01 3.20000000E+02
  1 41 100 3.20000000E+02 1.00000000E+01 3.20000000E+02
  1 41 117 3.34000000E+02 1.00000000E+01 3.34000000E+02
  1 41 126 3.29000000E+02 1.00000000E+01 3.29000000E+02
  1 42 39 3.03000000E+02 1.00000000E+01 3.03000000E+02
  1 42 40 3.01000000E+02 1.00000000E+01 3.01000000E+02
  1 42 67 3.23000000E+02 1.00000000E+01 3.23000000E+02
  1 42 78 3.12000000E+02 1.00000000E+01 3.12000000E+02
  1 42 79 3.09000000E+02 1.00000000E+01 3.09000000E+02
  1 42 80 3.15000000E+02 1.00000000E+01 3.15000000E+02
  1 42 81 3.17000000E+02 1.00000000E+01 3.17000000E+02
  1 42 82 3.18000000E+02 1.00000000E+01 3.18000000E+02
  1 42 83 3.21000000E+02 1.00000000E+01 3.21000000E+02
  1 42 84 3.21000000E+02 1.00000000E+01 3.21000000E+02
  1 42 85 3.24000000E+02 1.00000000E+01 3.24000000E+02
  1 42 86 3.29000000E+02 1.00000000E+01 3.29000000E+02
  1 42 87 3.23000000E+02 1.00000000E+01 3.23000000E+02
  1 42 95 3.20000000E+02 1.00000000E+01 3.20000000E+02
  1 42 99 3.22000000E+02 1.00000000E+01 3.22000000E+02
  1 42 100 3.19000000E+02 1.00000000E+01 3.19000000E+02
  1 42 101 3.21000000E+02 1.00000000E+01 3.21000000E+02
  1 42 102 3.21000000E+02 1.00000000E+01 3.21000000E+02
  1 42 103 3.23000000E+02 1.00000000E+01 3.23000000E+02
  1 42 104 3.21000000E+02 1.00000000E+01 3.21000000E+02
  1 42 117 3.35000000E+02 1.00000000E+01 3.35000000E+02
  1 42 118 3.31000000E+02 1.00000000E+01 3.31000000E+02
  1 42 126 3.30000000E+02 1.00000000E+01 3.30000000E+02
  1 43 23 3.02000000E+02 1.00000000E+01 3.02000000E+02
  1 43 39 3.01000000E+02 1.00000000E+01 3.01000000E+02
  1 43 67 3.20000000E+02 1.00000000E+01 3.20000000E+02
  1 43 78 3.10000000E+02 1.00000000E+01 3.10000000E+02
  1 43 95 3.20000000E+02 1.00000000E+01 3.20000000E+02
  1 43 99 3.18000000E+02 1.00000000E+01 3.18000000E+02
  1 43 104 3.24000000E+02 1.00000000E+01 3.24000000E+02
  1 43 105 3.23000000E+02 1.00000000E+01 3.23000000E+02
  1 43 106 3.24000000E+02 1.00000000E+01 3.24000000E+02
  1 43 107 3.24000000E+02 1.00000000E+01 3.24000000E+02
  1 43 108 3.25000000E+02 1.00000000E+01 3.25000000E+02
  1 43 109 3.29000000E+02 1.00000000E+01 3.29000000E+02
  1 43 110 3.29000000E+02 1.00000000E+01 3.29000000E+02
  1 43 111 3.31000000E+02 1.00000000E+01 3.31000000E+02
  1 43 112 3.32000000E+02 1.00000000E+01 3.32000000E+02
  1 43 113 3.34000000E+02 1.00000000E+01 3.34000000E+02
  1 43 118 3.31000000E+02 1.00000000E+01 3.31000000E+02
  1 43 119 3.29000000E+02 1.00000000E+01 3.29000000E+02
  1 43 125 3.32000000E+02 1.00000000E+01 3.32000000E+02
  1 43 126 3.27000000E+02 1.00000000E+01 3.27000000E+02
  1 44 23 3.04000000E+02 1.00000000E+01 3.04000000E+02
  1 44 24 3.01000000E+02 1.00000000E+01 3.01000000E+02
  1 44 38 3.00000000E+02 1.00000000E+01 3.00000000E+02
  1 44 39 3.05000000E+02 1.00000000E+01 3.05000000E+02
  1 44 67 3.19000000E+02 1.00000000E+01 3.19000000E+02
  1 44 77 3.16000000E+02 1.00000000E+01 3.16000000E+02
  1 44 78 3.13000000E+02 1.00000000E+01 3.13000000E+02
  1 44 95 3.16000000E+02 1.00000000E+01 3.16000000E+02
  1 44 96 3.20000000E+02 1.00000000E+01 3.20000000E+02
  1 44 98 3.17000000E+02 1.00000000E+01 3.17000000E+02
  1 44 99 3.18000000E+02 1.00000000E+01 3.18000000E+02
  1 44 119 3.34000000E+02 1.00000000E+01 3.34000000E+02
  1 44 120 3.30000000E+02 1.00000000E+01 3.30000000E+02
  1 44 125 3.28000000E+02 1.00000000E+01 3.28000000E+02
  1 45 24 3.02000000E+02 1.00000000E+01 3.02000000E+02
  1 45 37 3.09000000E+02 1.00000000E+01 3.09000000E+02
  1 45 38 3.06000000E+02 1.00000000E+01 3.06000000E+02
  1 45 67 3.16000000E+02 1.00000000E+01 3.16000000E+02
  1 45 77 3.11000000E+02 1.00000000E+01 3.11000000E+02
  1 45 96 3.15000000E+02 1.00000000E+01 3.15000000E+02
  1 45 98 3.16000000E+02 1.00000000E+01 3.16000000E+02
  1 45 120 3.30000000E+02 1.00000000E+01 3.30000000E+02
  1 45 121 3.23000000E+02 1.00000000E+01 3.23000000E+02
  1 45 124 3.27000000E+02 1.00000000E+01 3.27000000E+02
  1 45 125 3.29000000E+02 1.00000000E+01 3.29000000E+02
  1 46 24 2.99000000E+02 1.00000000E+01 2.99000000E+02
  1 46 25 3.04000000E+02 1.00000000E+01 3.04000000E+02
  1 46 36 3.01000000E+02 1.00000000E+01 3.01000000E+02
  1 46 37 3.02000000E+02 1.00000000E+01 3.02000000E+02
  1 46 67 3.14000000E+02 1.00000000E+01 3.14000000E+02
  1 46 76 3.06000000E+02 1.00000000E+01 3.06000000E+02
  1 46 77 3.07000000E+02 1.00000000E+01 3.07000000E+02
  1 46 96 3.14000000E+02 1.00000000E+01 3.14000000E+02
  1 46 97 3.12000000E+02 1.00000000E+01 3.12000000E+02
  1 46 98 3.18000000E+02 1.00000000E+01 3.18000000E+02
  1 46 121 3.24000000E+02 1.00000000E+01 3.24000000E+02
  1 46 124 3.25000000E+02 1.00000000E+01 3.25000000E+02
  1 47 25 3.01000000E+02 1.00000000E+01 3.01000000E+02
  1 47 35 2.99000000E+02 1.00000000E+01 2.99000000E+02
  1 47 36 3.05000000E+02 1.00000000E+01 3.05000000E+02
  1 47 67 3.12000000E+02 1.00000000E+01 3.12000000E+02
  1 47 76 3.08000000E+02 1.00000000E+01 3.08000000E+02
  1 47 97 3.15000000E+02 1.00000000E+01 3.15000000E+02
  1 47 121 3.28000000E+02 1.00000000E+01 3.28000000E+02
  1 47 124 3.26000000E+02 1.00000000E+01 3.26000000E+02
  1 48 25 3.01000000E+02 1.00000000E+01 3.01000000E+02
  1 48 34 2.98000000E+02 1.00000000E+01 2.98000000E+02
  1 48 35 2.99000000E+02 1.00000000E+01 2.99000000E+02
  1 48 54 3.17000000E+02 1.00000000E+01 3.17000000E+02
  1 48 67 3.13000000E+02 1.00000000E+01 3.13000000E+02
  1 48 75 3.06000000E+02 1.00000000E+01 3.06000000E+02
  1 48 76 3.11000000E+02 1.00000000E+01 3.11000000E+02
  1 48 96 3.12000000E+02 1.00000000E+01 3.12000000E+02
  1 48 97 3.13000000E+02 1.00000000E+01 3.13000000E+02
  1 48 121 3.26000000E+02 1.00000000E+01 3.26000000E+02
  1 48 122 3.22000000E+02 1.00000000E+01 3.22000000E+02
  1 48 123 3.23000000E+02 1.00000000E+01 3.23000000E+02
  1 48 124 3.25000000E+02 1.00000000E+01 3.25000000E+02
  1 48 125 3.26000000E+02 1.00000000E+01 3.26000000E+02
  1 49 25 3.00000000E+02 1.00000000E+01 3.00000000E+02
  1 49 34 2.97000000E+02 1.00000000E+01 2.97000000E+02
  1 49 52 3.17000000E+02 1.00000000E+01 3.17000000E+02
  1 49 53 3.19000000E+02 1.00000000E+01 3.19000000E+02
  1 49 54 3.19000000E+02 1.00000000E+01 3.19000000E+02
  1 49 67 3.11000000E+02 1.00000000E+01 3.11000000E+02
  1 49 75 3.05000000E+02 1.00000000E+01 3.05000000E+02
  1 49 92 3.19000000E+02 1.00000000E+01 3.19000000E+02
  1 49 96 3.14000000E+02 1.00000000E+01 3.14000000E+02
  1 49 122 3.24000000E+02 1.00000000E+01 3.24000000E+02
  1 49 123 3.25000000E+02 1.00000000E+01 3.25000000E+02
  1 49 124 3.26000000E+02 1.00000000E+01 3.26000000E+02
  1 50 25 2.99000000E+02 1.00000000E+01 2.99000000E+02
  1 50 34 2.98000000E+02 1.00000000E+01 2.98000000E+02
  1 50 51 3.20000000E+02 1.00000000E+01 3.20000000E+02
  1 50 52 3.18000000E+02 1.00000000E+01 3.18000000E+02
  1 50 67 3.12000000E+02 1.00000000E+01 3.12000000E+02
  1 50 74 3.07000000E+02 1.00000000E+01 3.07000000E+02
  1 50 75 3.07000000E+02 1.00000000E+01 3.07000000E+02
  1 50 92 3.16000000E+02 1.00000000E+01 3.16000000E+02
  1 50 93 3.16000000E+02 1.00000000E+01 3.16000000E+02
  1 50 95 3.13000000E+02 1.00000000E+01 3.13000000E+02
  1 50 96 3.11000000E+02 1.00000000E+01 3.11000000E+02
  1 50 122 3.23000000E+02 1.00000000E+01 3.23000000E+02
  1 50 123 3.28000000E+02 1.00000000E+01 3.28000000E+02
  1 51 25 2.99000000E+02 1.00000000E+01 2.99000000E+02
  1 51 32 2.98000000E+02 1.00000000E+01 2.98000000E+02
  1 51 33 3.01000000E+02 1.00000000E+01 3.01000000E+02
  1 51 48 3.17000000E+02 1.00000000E+01 3.17000000E+02