# File generated by Flopy version 3.10.0.dev5 on 05/12/2026 at 16:26:37.
BEGIN options
  SAVE_FLOWS
END options

BEGIN packages
  DIS6  minet01.dis  dis
  IC6  minet01.ic  ic
  NPF6  minet01.npf  npf
  RIV6  minet01.riv  riv_0
  WEL6  minet01.wel  wel_0
  RCH6  minet01.rcha  rch
  OC6  minet01.oc  oc
END packages

