# File generated by Flopy version 3.10.0.dev5 on 05/12/2026 at 16:26:38.
BEGIN options
END options

BEGIN dimensions
  MAXBOUND  5
END dimensions

BEGIN period  1
  1 25 77 -19
  3 54 44 -13
  3 78 100 -15
  3 35 44 -13
  1 74 84 -7
END period  1

