# File generated by Flopy version 3.10.0.dev5 on 05/12/2026 at 16:26:38.
BEGIN options
  BUDGET  FILEOUT  minet01.cbc
  HEAD  FILEOUT  minet01.hds
END options

BEGIN period  1
  SAVE  HEAD  ALL
  SAVE  BUDGET  ALL
END period  1

